data_Al2O3

  '
num_samples: 1
max_new_tokens: 600
temperature: 0.8
top_k: 10
seed: 1337
device: cuda
dtype: float16
compile: false
target: console

number of parameters: 10.76M
data_Al2O3
loop_
_atom_type_symbol
_atom_type_electronegativity
_atom_type_radius
_atom_type_ionic_radius
Al 1.6100 1.2500 0.6750
O 3.4400 0.6000 1.2600
_symmetry_space_group_name_H-M P1
_cell_length_a 5.0804
_cell_length_b 5.0009
_cell_length_c 7.1737
_cell_angle_alpha 100.3734
_cell_angle_beta 90.7456
_cell_angle_gamma 101.1750
_symmetry_Int_Tables_number 1
_chemical_formula_structural Al2O3
_chemical_formula_sum 'Al2 O3'
_cell_volume 151.1372
_cell_formula_units_Z 1
loop_
_symmetry_equiv_pos_site_id
_symmetry_equiv_pos_as_xyz
1 'x, y, z'
loop_
_atom_site_type_symbol
_atom_site_label
_atom_site_symmetry_multiplicity
_atom_site_fract_x
_atom_site_fract_y
_atom_site_fract_z
_atom_site_occupancy
Al Al0 1 0.0581 0.4824 0.6687 1
Al Al1 1 0.4427 0.6517 0.1781 1
O O2 1 0.8580 0.8667 0.2169 1
O O3 1 0.8853 0.6429 0.5359 1