data_CaCO3_calcite
_symmetry_space_group_name_H-M   'R -3 c'
_symmetry_Int_Tables_number      167
_cell_length_a    4.9896
_cell_length_b    4.9896
_cell_length_c    17.0610
_cell_angle_alpha 90
_cell_angle_beta  90
_cell_angle_gamma 120
_symmetry_equiv_pos_as_xyz
  'x, y, z'
  '-x, -y, z'
  '-y, x-y, z+1/3'
  'y, -x+y, z+2/3'
  '-x+y, -x, z+2/3'
  'x-y, y, z+1/3'
loop_
 _atom_site_label
 _atom_site_type_symbol
 _atom_site_symmetry_multiplicity
 _atom_site_Wyckoff_label
 _atom_site_fract_x
 _atom_site_fract_y
 _atom_site_fract_z
Ca   Ca   6  a  0.00000  0.00000  0.25000
C    C    6  b  0.33333  0.66667  0.25000
O    O    18 c  0.00000  0.33333  0.08333
O    O    18 c  0.00000  0.66667  0.41667
O    O    18 c  0.33333  0.00000  0.41667
O    O    18 c  0.66667  0.33333  0.08333
